@<TRIPOS>MOLECULE
ZINC03814457
 17 18 0 0 0
SMALL
GASTEIGER

@<TRIPOS>ATOM
      1 C           5.4230   -0.4412    0.7616 C.3     1  UNL1        0.0079
      2 C           4.2434    0.3667    0.1880 C.3     1  UNL1        0.0615
      3 C           4.5978    0.9630   -1.1852 C.3     1  UNL1        0.0079
      4 C           2.9575   -0.4703    0.1074 C.2     1  UNL1        0.1941
      5 O           2.9988   -1.6999    0.0580 O.2     1  UNL1       -0.2922
      6 C           1.6357    0.2975    0.0804 C.3     1  UNL1        0.2707
      7 O           0.5374   -0.6063    0.0692 O.3     1  UNL1       -0.4509
      8 C          -0.7229   -0.0532    0.0310 C.ar    1  UNL1        0.2490
      9 C          -1.8848   -0.8592   -0.0106 C.ar    1  UNL1        0.1718
     10 C          -3.1098   -0.1432   -0.0466 C.ar    1  UNL1        0.1891
     11 N          -4.0854   -1.1212   -0.0831 N.ar    1  UNL1       -0.2031
     12 C          -3.4330   -2.2959   -0.0687 C.ar    1  UNL1        0.2005
     13 N          -2.1041   -2.2310   -0.0241 N.ar    1  UNL1       -0.2161
     14 N          -3.2721    1.2054   -0.0433 N.ar    1  UNL1       -0.1902
     15 C          -2.0919    1.8123   -0.0064 C.ar    1  UNL1        0.2606
     16 N          -0.8677    1.2990    0.0350 N.ar    1  UNL1       -0.1748
     17 N          -2.1448    3.1672   -0.0074 N.pl3   1  UNL1       -0.0859
@<TRIPOS>BOND
     1     1     2    1
     2     2     3    1
     3     2     4    1
     4     4     5    2
     5     4     6    1
     6     6     7    1
     7     7     8    1
     8     8    16   ar
     9     8     9   ar
    10     9    13   ar
    11     9    10   ar
    12    10    11   ar
    13    10    14   ar
    14    11    12   ar
    15    12    13   ar
    16    14    15   ar
    17    15    16   ar
    18    15    17    1
