@<TRIPOS>MOLECULE
ZINC03814459
 17 19 0 0 0
SMALL
GASTEIGER

@<TRIPOS>ATOM
      1 C           3.2069    2.4332    0.1683 C.ar    1  UNL1        0.2005
      2 N           3.9680    1.3361    0.0191 N.ar    1  UNL1       -0.2031
      3 C           3.0936    0.2661   -0.0051 C.ar    1  UNL1        0.1891
      4 C           1.8080    0.8502    0.1384 C.ar    1  UNL1        0.1717
      5 N           1.8933    2.2332    0.2504 N.ar    1  UNL1       -0.2161
      6 C           0.7321   -0.0685    0.1386 C.ar    1  UNL1        0.2487
      7 N           1.0086   -1.3940    0.0148 N.ar    1  UNL1       -0.1748
      8 C           2.2734   -1.7772   -0.1068 C.ar    1  UNL1        0.2606
      9 N           3.3866   -1.0536   -0.1367 N.ar    1  UNL1       -0.1902
     10 N           2.4572   -3.1158   -0.2204 N.pl3   1  UNL1       -0.0859
     11 O          -0.5735    0.3558    0.2686 O.3     1  UNL1       -0.4564
     12 C          -1.5971   -0.6310    0.2422 C.3     1  UNL1        0.2364
     13 C          -2.9575    0.0650    0.3723 C.3     1  UNL1        0.1588
     14 C          -4.1165   -0.8888    0.6548 C.3     1  UNL1        0.0360
     15 C          -5.3322   -0.1496    0.1130 C.3     1  UNL1        0.0347
     16 C          -4.7364    0.9594   -0.7584 C.3     1  UNL1        0.1423
     17 O          -3.3578    0.6367   -0.8635 O.3     1  UNL1       -0.3524
@<TRIPOS>BOND
     1     1     5   ar
     2     1     2   ar
     3     2     3   ar
     4     3     9   ar
     5     3     4   ar
     6     4     5   ar
     7     4     6   ar
     8     6     7   ar
     9     6    11    1
    10     7     8   ar
    11     8     9   ar
    12     8    10    1
    13    11    12    1
    14    12    13    1
    15    13    17    1
    16    13    14    1
    17    14    15    1
    18    15    16    1
    19    16    17    1
